12

Li        3.1351740028    0.0301864208   -0.0899927667
C        -1.8538615271    0.7559400247   -0.0168212819
O        -0.5147111757    1.0899260690    0.4909313057
C        -1.8646023775   -0.7607766071    0.0024922094
S         0.5219694491   -0.0076412814    0.0393130319
O        -0.5007768592   -1.1187101760   -0.4129945813
O         1.3372826952    0.4021260438   -1.1028267119
O         1.3544483179   -0.4032823856    1.1682731513
H        -2.5631330789    1.1984966982    0.6776960709
H        -1.9477570036    1.1752479173   -1.0172464239
H        -2.0311006070   -1.1662410891    0.9955158647
H        -2.5345042973   -1.1951653734   -0.7350107572