16

S         -0.00251       -0.05817       -0.02922
C          1.70755       -0.03034       -0.01383
H          2.24317       -0.05215        0.92027
C          2.21976        0.01718       -1.27293
H          3.27786        0.04082       -1.48540
C          1.20867        0.04479       -2.27008
H          1.40292        0.10592       -3.33111
C         -0.05341        0.01577       -1.74839
C         -1.32843        0.03545       -2.45531
C         -2.06388       -1.02225       -2.90941
H         -1.76303       -2.04974       -2.76539
C         -3.26666       -0.62426       -3.55133
H         -3.98421       -1.31346       -3.97001
C         -3.42336        0.72667       -3.57086
H         -4.23984        1.29448       -3.98409
S         -2.10656        1.52533       -2.82670
