12
H6 C3 O3
O -1.102400 -2.024400 0.000000
O 1.102200 -2.024400 0.000000
O 0.000000 0.000000 0.000000
C -0.000100 -1.223600 0.000300
C -2.361200 -1.343000 -0.000800
C 2.360900 -1.343000 -0.000800
H -2.459700 -0.728600 0.899300
H -3.154800 -2.094800 -0.001000
H -2.458800 -0.728900 -0.901200
H 3.154600 -2.094900 -0.001100
H 2.459500 -0.728600 0.899300
H 2.458600 -0.729000 -0.901100